Version 4
SHEET 1 1380 1180
WIRE -336 16 -544 16
WIRE -112 16 -336 16
WIRE -336 32 -336 16
WIRE -112 128 -112 96
WIRE -336 176 -336 112
WIRE -304 176 -336 176
WIRE -176 176 -224 176
WIRE -336 208 -336 176
WIRE -400 256 -448 256
WIRE -112 256 -112 224
WIRE 48 256 -112 256
WIRE 256 256 112 256
WIRE 416 256 256 256
WIRE 576 256 480 256
WIRE 656 256 576 256
WIRE 816 256 736 256
WIRE 928 256 816 256
WIRE 1024 256 928 256
WIRE -688 304 -880 304
WIRE -448 304 -448 256
WIRE -448 304 -608 304
WIRE -112 304 -112 256
WIRE 256 320 256 256
WIRE 576 320 576 256
WIRE -448 352 -448 304
WIRE -176 352 -448 352
WIRE 816 368 816 256
WIRE 928 368 928 256
WIRE 1024 368 1024 256
WIRE -880 384 -880 304
WIRE -880 528 -880 464
WIRE -544 528 -544 96
WIRE -544 528 -880 528
WIRE -336 528 -336 304
WIRE -336 528 -544 528
WIRE -224 528 -336 528
WIRE -112 528 -112 400
WIRE -112 528 -224 528
WIRE 256 528 256 384
WIRE 256 528 -112 528
WIRE 576 528 576 384
WIRE 576 528 256 528
WIRE 816 528 816 432
WIRE 816 528 576 528
WIRE 928 528 928 432
WIRE 928 528 816 528
WIRE 1024 528 1024 448
WIRE 1024 528 928 528
WIRE -224 544 -224 528
FLAG -224 544 0
SYMBOL npn -400 208 R0
SYMATTR InstName Q1
SYMATTR Value 2N3904
SYMBOL voltage -880 368 R0
WINDOW 123 0 0 Left 2
WINDOW 39 0 0 Left 2
WINDOW 3 10 129 Left 2
SYMATTR Value PULSE(0 5 0 0.00005 0.00005 0.0002 0.0005)
SYMATTR InstName V1
SYMBOL voltage -544 0 R0
WINDOW 123 0 0 Left 2
WINDOW 39 0 0 Left 2
SYMATTR InstName V2
SYMATTR Value 14
SYMBOL cap 48 272 R270
WINDOW 0 32 32 VTop 2
WINDOW 3 0 32 VBottom 2
SYMATTR InstName C1
SYMATTR Value 100µ
SYMBOL diode 480 240 R90
WINDOW 0 0 32 VBottom 2
WINDOW 3 32 32 VTop 2
SYMATTR InstName D1
SYMATTR Value 1N4148
SYMBOL diode 240 320 R0
SYMATTR InstName D2
SYMATTR Value 1N4148
SYMBOL cap 560 320 R0
SYMATTR InstName 220u
SYMATTR Value 100µ
SYMBOL res 1008 352 R0
SYMATTR InstName R4
SYMATTR Value 100
SYMBOL npn -176 128 R0
SYMATTR InstName Q2
SYMATTR Value 2N3904
SYMBOL npn -176 304 R0
SYMATTR InstName Q3
SYMATTR Value 2N3904
SYMBOL res 640 272 R270
WINDOW 0 32 56 VTop 2
WINDOW 3 0 56 VBottom 2
SYMATTR InstName R1
SYMATTR Value 10
SYMBOL cap 912 368 R0
SYMATTR InstName C2
SYMATTR Value 47µ
SYMBOL res -320 192 R270
WINDOW 0 32 56 VTop 2
WINDOW 3 0 56 VBottom 2
SYMATTR InstName R6
SYMATTR Value 1k
SYMBOL res -592 288 R90
WINDOW 0 0 56 VBottom 2
WINDOW 3 32 56 VTop 2
SYMATTR InstName R2
SYMATTR Value 1k
SYMBOL AutoGenerated\\1N4733A 816 400 R90
SYMATTR InstName U2
SYMBOL res -352 16 R0
SYMATTR InstName R3
SYMATTR Value 220
SYMBOL res -128 0 R0
SYMATTR InstName R5
SYMATTR Value 39
TEXT -880 816 Left 2 !.tran 0 0.2 0 0.1
TEXT -880 848 Left 2 !.lib "C:\\Users\\Daniel\\Documents\\university\\3rd year\\2) E-Design 344\\SPICE models\\1N4733A.lib"
