Version 4
SHEET 1 3152 680
WIRE 592 -560 576 -560
WIRE 512 -432 512 -560
WIRE 592 -432 592 -560
WIRE 1168 -432 592 -432
WIRE 512 -112 512 -432
WIRE 608 -112 512 -112
WIRE 848 -112 816 -112
WIRE 432 -80 432 -432
WIRE 576 -80 432 -80
WIRE 608 -80 576 -80
WIRE 992 -80 816 -80
WIRE 1056 -80 992 -80
WIRE 1168 -80 1168 -432
WIRE 1168 -80 1136 -80
WIRE 1424 -80 1168 -80
WIRE 1632 -80 1488 -80
WIRE 1632 -64 1632 -80
WIRE 192 -48 96 -48
WIRE 544 -48 256 -48
WIRE 608 -48 544 -48
WIRE 848 -48 848 -112
WIRE 848 -48 816 -48
WIRE 992 -48 992 -80
WIRE 1168 -48 1168 -80
WIRE 576 48 576 -80
WIRE 848 48 848 -48
WIRE 848 48 576 48
WIRE 992 48 992 16
WIRE 992 48 848 48
WIRE 1168 48 1168 16
WIRE 1168 48 992 48
WIRE 1456 48 1456 -16
WIRE 1456 48 1168 48
WIRE 1632 48 1632 16
WIRE 1632 48 1456 48
WIRE 848 80 848 48
WIRE 96 112 96 -48
WIRE 544 112 544 -48
WIRE 96 288 96 192
WIRE 544 288 544 176
FLAG 96 288 0
FLAG 544 288 0
FLAG 848 80 0
SYMBOL voltage 96 96 R0
WINDOW 123 0 0 Left 2
SYMATTR InstName V1
SYMATTR Value SINE(0 25 50)
SYMBOL diode 192 -32 R270
WINDOW 0 32 32 VTop 2
WINDOW 3 0 32 VBottom 2
SYMATTR InstName D1
SYMATTR Value 1N4148
SYMBOL cap 528 112 R0
SYMATTR InstName C1
SYMATTR Value 220µ
SYMBOL cap 1152 -48 R0
WINDOW 3 22 57 Left 2
SYMATTR Value 120µ
SYMATTR InstName C2
SYMBOL ind 1040 -64 R270
WINDOW 0 32 56 VTop 2
WINDOW 3 5 56 VBottom 2
SYMATTR InstName L1
SYMATTR Value 68µ
SYMBOL schottky 1008 16 R180
WINDOW 0 24 64 Left 2
WINDOW 3 24 0 Left 2
SYMATTR InstName D2
SYMATTR Value 1N5819
SYMBOL res 608 -448 R90
WINDOW 0 0 56 VBottom 2
WINDOW 3 32 56 VTop 2
SYMATTR InstName R2
SYMATTR Value 6.8k
SYMBOL res 528 -448 R90
WINDOW 0 0 56 VBottom 2
WINDOW 3 32 56 VTop 2
SYMATTR InstName R3
SYMATTR Value 1k
SYMBOL cap 512 -544 R270
WINDOW 0 32 32 VTop 2
WINDOW 3 0 32 VBottom 2
SYMATTR InstName C3
SYMATTR Value 4.7n
SYMBOL res 1616 -80 R0
SYMATTR InstName R1
SYMATTR Value 50
SYMBOL AutoGenerated\\LM2595_ADJ_TRANS 704 -80 R0
SYMATTR InstName U3
SYMBOL AutoGenerated\\LM7805 1456 -64 R0
SYMATTR InstName U4
TEXT -200 152 Left 2 !.tran 0 0.1 0.01 0.01
TEXT -760 480 Left 2 !.lib "C:\\Users\\Daniel\\Documents\\university\\3rd year\\2) E-Design 344\\SPICE models\\LM2595_ADJ_TRANS.LIB"
TEXT -648 408 Left 2 !.lib "C:\\Users\\Daniel\\Documents\\university\\3rd year\\2) E-Design 344\\SPICE models\\LM78XX_RS.lib"
TEXT -616 344 Left 2 !.lib "C:\\Users\\Daniel\\Documents\\university\\3rd year\\2) E-Design 344\\SPICE models\\1N4733A.lib"
