Version 4
SHEET 1 5008 2016
WIRE 1616 496 1408 496
WIRE 1840 496 1616 496
WIRE 1840 576 1840 496
WIRE 1616 688 1616 496
WIRE 1840 688 1840 656
WIRE 2864 768 1808 768
WIRE 2160 864 2128 864
WIRE 1840 880 1840 752
WIRE 1872 880 1840 880
WIRE 2064 880 1872 880
WIRE 2192 896 2128 896
WIRE 2064 912 1984 912
WIRE 2640 912 2608 912
WIRE 2656 912 2640 912
WIRE 3088 912 3040 912
WIRE 3104 912 3088 912
WIRE 1616 928 1616 768
WIRE 1648 928 1616 928
WIRE 1808 928 1808 768
WIRE 1808 928 1648 928
WIRE 2224 928 2128 928
WIRE 2256 928 2224 928
WIRE 2368 928 2320 928
WIRE 2512 928 2368 928
WIRE 2544 928 2512 928
WIRE 2864 928 2864 768
WIRE 2960 928 2864 928
WIRE 2976 928 2960 928
WIRE 2640 944 2608 944
WIRE 2688 944 2640 944
WIRE 3088 944 3040 944
WIRE 3136 944 3088 944
WIRE 2512 960 2480 960
WIRE 2544 960 2512 960
WIRE 2960 960 2928 960
WIRE 2976 960 2960 960
WIRE 1408 976 1408 496
WIRE 2640 976 2608 976
WIRE 2752 976 2640 976
WIRE 2848 976 2816 976
WIRE 3088 976 3040 976
WIRE 3184 976 3088 976
WIRE 3312 976 3248 976
WIRE 3488 976 3312 976
WIRE 3968 976 3936 976
WIRE 3664 992 3584 992
WIRE 3808 992 3664 992
WIRE 4000 1008 3936 1008
WIRE 3584 1024 3584 992
WIRE 3808 1024 3744 1024
WIRE 1984 1040 1984 912
WIRE 2064 1040 1984 1040
WIRE 2224 1040 2224 928
WIRE 2224 1040 2144 1040
WIRE 4016 1040 3936 1040
WIRE 4048 1040 4016 1040
WIRE 2368 1056 2368 928
WIRE 1136 1072 1136 944
WIRE 1280 1072 1280 944
WIRE 1616 1072 1616 928
WIRE 3488 1072 3488 976
WIRE 3488 1072 3456 1072
WIRE 3664 1072 3664 992
WIRE 2848 1088 2848 976
WIRE 3056 1088 2848 1088
WIRE 3392 1088 3056 1088
WIRE 1840 1104 1840 880
WIRE 1984 1104 1984 1040
WIRE 3312 1104 3312 976
WIRE 3584 1104 3456 1104
WIRE 3744 1136 3744 1024
WIRE 3840 1136 3744 1136
WIRE 4016 1136 4016 1040
WIRE 4016 1136 3920 1136
WIRE 3056 1152 3056 1088
WIRE 3744 1168 3744 1136
WIRE 1136 1280 1136 1152
WIRE 1280 1280 1280 1152
WIRE 1280 1280 1136 1280
WIRE 1408 1280 1408 1056
WIRE 1408 1280 1280 1280
WIRE 1616 1280 1616 1152
WIRE 1616 1280 1408 1280
WIRE 1840 1280 1840 1184
WIRE 1840 1280 1616 1280
WIRE 1984 1280 1984 1184
WIRE 1984 1280 1840 1280
WIRE 2368 1280 2368 1136
WIRE 2368 1280 1984 1280
WIRE 2480 1280 2480 960
WIRE 2480 1280 2368 1280
WIRE 2928 1280 2928 960
WIRE 2928 1280 2480 1280
WIRE 3056 1280 3056 1232
WIRE 3056 1280 2928 1280
WIRE 3312 1280 3312 1184
WIRE 3312 1280 3056 1280
WIRE 3664 1280 3664 1136
WIRE 3664 1280 3312 1280
WIRE 3744 1280 3744 1248
WIRE 3744 1280 3664 1280
WIRE 1616 1296 1616 1280
FLAG 1616 1296 0
FLAG 1872 880 I_sense
FLAG 1648 928 V_scaled
FLAG 1280 944 5V
IOPIN 1280 944 Out
FLAG 1136 944 -5V
IOPIN 1136 944 Out
FLAG 2160 864 5V
IOPIN 2160 864 In
FLAG 3104 912 5V
IOPIN 3104 912 In
FLAG 2656 912 5V
IOPIN 2656 912 In
FLAG 2192 896 -5V
IOPIN 2192 896 In
FLAG 2688 944 -5V
IOPIN 2688 944 In
FLAG 3136 944 -5V
IOPIN 3136 944 In
FLAG 4048 1040 Phase_DC_out
FLAG 3968 976 5V
IOPIN 3968 976 In
FLAG 4000 1008 -5V
IOPIN 4000 1008 In
SYMBOL voltage 1408 960 R0
WINDOW 123 0 0 Left 2
WINDOW 39 0 0 Left 2
SYMATTR InstName V1
SYMATTR Value SINE(0 25.5 50 0 0)
SYMBOL res 1600 672 R0
SYMATTR InstName R1
SYMATTR Value 242k
SYMBOL res 1600 1056 R0
SYMATTR InstName R2
SYMATTR Value 27k
SYMBOL res 1824 560 R0
SYMATTR InstName R3
SYMATTR Value 1K
SYMBOL res 1824 1088 R0
SYMATTR InstName R4
SYMATTR Value 0.035
SYMBOL res 2048 1056 R270
WINDOW 0 32 56 VTop 2
WINDOW 3 0 56 VBottom 2
SYMATTR InstName R5
SYMATTR Value 560k
SYMBOL res 1968 1088 R0
SYMATTR InstName R6
SYMATTR Value 1.8k
SYMBOL cap 1824 688 R0
SYMATTR InstName C1
SYMATTR Value 22µ
SYMBOL cap 2320 912 R90
WINDOW 0 0 32 VBottom 2
WINDOW 3 32 32 VTop 2
SYMATTR InstName C2
SYMATTR Value 3.3µ
SYMBOL AutoGenerated\\TL081 2096 896 R0
SYMATTR InstName U3
SYMBOL schottky 3184 992 R270
WINDOW 0 32 32 VTop 2
WINDOW 3 0 32 VBottom 2
SYMATTR InstName D1
SYMATTR Value 1N5818
SYMATTR Description Diode
SYMATTR Type diode
SYMBOL res 2352 1040 R0
SYMATTR InstName R7
SYMATTR Value 10k
SYMBOL schottky 2752 992 R270
WINDOW 0 32 32 VTop 2
WINDOW 3 0 32 VBottom 2
SYMATTR InstName D2
SYMATTR Value 1N5818
SYMATTR Description Diode
SYMATTR Type diode
SYMBOL voltage 1136 1056 R0
WINDOW 123 0 0 Left 2
WINDOW 39 0 0 Left 2
SYMATTR InstName V2
SYMATTR Value -5
SYMBOL voltage 1280 1056 R0
WINDOW 123 0 0 Left 2
WINDOW 39 0 0 Left 2
SYMATTR InstName V3
SYMATTR Value 5
SYMBOL res 3040 1136 R0
SYMATTR InstName R8
SYMATTR Value 1k
SYMBOL res 3296 1088 R0
SYMATTR InstName R9
SYMATTR Value 1k
SYMBOL AutoGenerated\\XOR_2 3424 1088 R0
SYMATTR InstName U4
SYMBOL cap 3648 1072 R0
SYMATTR InstName Clp
SYMATTR Value 2.2µ
SYMBOL AutoGenerated\\TLC2272 3872 1008 R0
SYMATTR InstName U5
SYMBOL res 3936 1120 R90
WINDOW 0 0 56 VBottom 2
WINDOW 3 24 56 VTop 2
SYMATTR InstName Rf3
SYMATTR Value 27k
SYMBOL res 3728 1152 R0
SYMATTR InstName Rg3
SYMATTR Value 10k
SYMBOL res 3600 1120 R180
WINDOW 0 36 76 Left 2
WINDOW 3 36 40 Left 2
SYMATTR InstName RLP1
SYMATTR Value 1000k
SYMBOL AutoGenerated\\TLC2272 2576 944 R0
SYMATTR InstName U1
SYMBOL AutoGenerated\\TLC2272 3024 944 R0
SYMATTR InstName U2
TEXT 1064 1320 Left 2 !.tran 0 20 17
